SOL 101
CEND
BEGIN BULK
GRID,1,,0.,0.,0.
GRID,2,,1.,0.,0.
GRID,3,,1.,1.,0.
GRID,4,,0.,1.,0.
MAT1,1,2.10E5,,0.3
PSHELL,1,1,0.1
CQUAD4,1,1,1,2,3,4
FORCE,10,1,,100.,0.,0.,-1.
SPC1,20,123456,1
ENDDATA

